STAAD SPACE
START JOB INFORMATION
ENGINEER DATE 12-Oct-23
END JOB INFORMATION
INPUT WIDTH 79
UNIT METER KN
JOINT COORDINATES
1 11.2084 3.83981 -8.60791; 2 11.2084 3.23573 0.0209269; 3 11.2084 2.93646 0;
6 11.2084 3.44677 -7.2978; 8 11.2084 3.35399 -5.97092;
9 11.2084 3.60687 -5.28656; 10 11.2084 3.2612 -4.64405;
11 11.2084 3.51408 -3.95969; 12 11.2084 3.16842 -3.31718;
13 11.2084 3.4213 -2.63282; 14 11.2084 3.07564 -1.99031;
15 11.2084 3.32851 -1.30594; 16 11.2084 2.98285 -0.663435;
17 11.2084 3.79243 -7.94031; 18 11.2084 3.49316 -7.96123;
19 11.2084 3.74604 -7.27687; 20 11.2084 3.69965 -6.61343;
21 11.2084 3.40038 -6.63436; 22 11.2084 3.65326 -5.95;
23 11.2084 3.3076 -5.30749; 24 11.2084 3.56047 -4.62313;
25 11.2084 3.21481 -3.98062; 26 11.2084 3.46769 -3.29625;
27 11.2084 3.12203 -2.65374; 28 11.2084 3.37491 -1.96938;
29 11.2084 3.02924 -1.32687; 30 11.2084 3.28212 -0.642508;
31 11.2084 3.53954 -8.62891;
MEMBER INCIDENCES
2 3 2; 9 8 9; 10 9 10; 11 10 11; 12 11 12; 13 12 13; 14 13 14; 15 14 15;
16 15 16; 17 16 2; 18 18 17; 19 6 19; 20 21 20; 21 8 22; 22 23 9; 23 10 24;
24 25 11; 25 12 26; 26 27 13; 27 14 28; 28 29 15; 29 16 30; 30 17 19; 31 19 20;
32 20 22; 33 22 9; 34 9 24; 35 24 11; 36 11 26; 37 26 13; 38 13 28; 39 28 15;
40 15 30; 41 30 2; 43 18 6; 44 6 21; 45 21 8; 46 8 23; 47 23 10; 48 10 25;
49 25 12; 50 12 27; 51 27 14; 52 14 29; 53 29 16; 54 16 3; 55 1 17; 56 31 1;
57 31 18; 58 31 17; 59 17 6; 60 6 20; 61 20 8;
DEFINE MATERIAL START
ISOTROPIC STEEL_A36
E 2e+08
POISSON 0.3
DENSITY 77
ALPHA 1.2e-05
DAMP 0.03
G 7.88462e+07
TYPE STEEL
STRENGTH FY 248000 FU 414000 RY 1.5 RT 1.2
ISOTROPIC STEEL
E 2.05e+08
POISSON 0.3
DENSITY 76.8195
ALPHA 1.2e-05
DAMP 0.03
G 7.88462e+07
TYPE STEEL
STRENGTH FY 250000 FU 400000 RY 1.5 RT 1.2
END DEFINE MATERIAL
MEMBER PROPERTY AMERICAN
2 37 TO 41 43 TO 54 57 TABLE ST W6X9
9 TO 22 24 TO 27 29 58 TO 61 TABLE ST L40356
23 28 56 TABLE ST C6X10
55 TABLE ST HSST2X1X0.188
30 TABLE ST HSSP2.375X0.125
31 TABLE ST HSST2X2X.25_A1085
32 TABLE ST HSSP18X0.5_A1085
33 TABLE ST S12X35
34 TABLE ST M6X3
35 TABLE ST PIPS7
36 TABLE ST MC6X153
CONSTANTS
BETA 180 MEMB 2 43 TO 54 57
MATERIAL STEEL ALL
SUPPORTS
31 ENFORCED BUT MX MY
10 29 ENFORCED BUT FZ MX MY
MEMBER RELEASE
2 9 10 12 TO 22 24 TO 27 29 59 TO 61 START MY MZ
2 9 11 TO 29 56 58 TO 61 END MY MZ
LOAD 1 LOADTYPE Dead  TITLE DL
SELFWEIGHT Y -1 
MEMBER LOAD
30 TO 41 55 UNI GY -5
LOAD 2 LOADTYPE Wind  TITLE WL -Z
MEMBER LOAD
30 TO 41 55 UNI Y -5.11
PERFORM ANALYSIS
PARAMETER 1
CODE AISC UNIFIED 2010
METHOD LRFD
FU 414000 ALL
FYLD 248000 ALL
TRACK 2 MEMB 10 34
CHECK CODE ALL
FINISH
