STAAD SPACE
START JOB INFORMATION
ENGINEER DATE 12-Oct-23
END JOB INFORMATION
INPUT WIDTH 79
UNIT METER KN
JOINT COORDINATES
1 0.000283241 -0.669431 13.8798; 2 0.000283241 -0.9687 13.8588;
3 0.000283241 0.000414848 -0.00015777; 4 0.000283241 0.299684 0.0207692;
5 0.000283241 0.250854 0.719064; 6 0.000283241 -0.0972443 1.39643;
7 0.000283241 0.153195 2.11565; 8 0.000283241 -0.194903 2.79302;
9 0.000283241 0.0555363 3.51224; 10 0.000283241 -0.292562 4.18961;
11 0.000283241 -0.0421228 4.90883; 12 0.000283241 -0.390221 5.5862;
13 0.000283241 -0.139782 6.30542; 14 0.000283241 -0.48788 6.98279;
15 0.000283241 -0.237441 7.70201; 16 0.000283241 -0.58554 8.37938;
17 0.000283241 -0.3351 9.0986; 18 0.000283241 -0.683199 9.77597;
19 0.000283241 -0.432759 10.4952; 20 0.000283241 -0.780858 11.1726;
21 0.000283241 -0.530418 11.8918; 22 0.000283241 -0.878517 12.5691;
23 0.000283241 -0.628077 13.2884; 24 0.000283241 -0.0484147 0.698137;
25 0.000283241 0.202025 1.41736; 26 0.000283241 -0.146074 2.09473;
27 0.000283241 0.104366 2.81395; 28 0.000283241 -0.243733 3.49132;
29 0.000283241 0.00670671 4.21054; 30 0.000283241 -0.341392 4.88791;
31 0.000283241 -0.0909524 5.60713; 32 0.000283241 -0.439051 6.2845;
33 0.000283241 -0.188612 7.00372; 34 0.000283241 -0.53671 7.68109;
35 0.000283241 -0.28627 8.40031; 36 0.000283241 -0.634369 9.07767;
37 0.000283241 -0.383929 9.7969; 38 0.000283241 -0.732028 10.4743;
39 0.000283241 -0.481589 11.1935; 40 0.000283241 -0.829687 11.8709;
41 0.000283241 -0.579248 12.5901; 42 0.000283241 -0.927346 13.2674;
MEMBER INCIDENCES
1 1 2; 3 3 4; 4 3 5; 5 5 6; 6 6 7; 7 7 8; 8 8 9; 9 9 10; 10 10 11; 11 11 12;
12 12 13; 13 13 14; 14 14 15; 15 15 16; 16 16 17; 17 17 18; 18 18 19; 19 19 20;
20 20 21; 21 21 22; 22 22 23; 23 23 2; 24 5 24; 25 6 25; 27 7 26; 28 27 8;
29 9 28; 30 29 10; 31 11 30; 32 31 12; 33 13 32; 34 33 14; 35 15 34; 36 35 16;
37 17 36; 38 37 18; 39 19 38; 40 39 20; 41 21 40; 42 41 22; 43 23 42; 44 4 5;
45 5 25; 46 25 7; 47 27 7; 48 27 9; 49 9 29; 50 11 29; 51 11 31; 52 31 13;
53 13 33; 54 33 15; 55 15 35; 56 17 35; 57 17 37; 58 37 19; 59 19 39; 60 39 21;
61 21 41; 62 23 41; 63 23 1; 64 3 24; 65 24 6; 66 6 26; 67 26 8; 68 8 28;
69 28 10; 70 10 30; 71 12 30; 72 12 32; 73 14 32; 74 14 34; 75 34 16; 76 36 16;
77 36 18; 78 18 38; 79 38 20; 80 20 40; 81 40 22; 82 22 42; 83 42 2;
DEFINE MATERIAL START
ISOTROPIC STEEL_A36
E 2e+08
POISSON 0.3
DENSITY 77
ALPHA 1.2e-05
DAMP 0.03
G 7.88462e+07
TYPE STEEL
STRENGTH FY 248000 FU 414000 RY 1.5 RT 1.2
END DEFINE MATERIAL
MEMBER PROPERTY AMERICAN
1 3 44 TO 83 TABLE LD L20203 SP 0.005
4 TO 25 27 TO 43 TABLE LD L20202 SP 0.005
CONSTANTS
BETA 180 MEMB 1 64 TO 83
MATERIAL STEEL_A36 ALL
MEMBER RELEASE
1 5 TO 9 11 TO 25 27 TO 43 START MY MZ
1 3 TO 8 10 TO 25 27 TO 29 31 TO 34 36 TO 40 42 43 END MY MZ
SUPPORTS
3 ENFORCED BUT MX MY
10 34 40 ENFORCED BUT FZ MX MY
LOAD 1 LOADTYPE Dead  TITLE DL
SELFWEIGHT Y -1 
MEMBER LOAD
44 TO 63 UNI GY -5
LOAD 4 LOADTYPE Wind  TITLE WL -Z
MEMBER LOAD
44 TO 63 UNI Y -5.659
PERFORM ANALYSIS
PARAMETER 1
CODE AISC UNIFIED 2010
METHOD LRFD
FYLD 248000 ALL
FU 414000 ALL
TRACK 2 MEMB 9 61
CHECK CODE ALL
FINISH
