STAAD SPACE
START JOB INFORMATION
ENGINEER DATE 03-May-25
END JOB INFORMATION
INPUT WIDTH 79
SET NL 100
UNIT METER KN
JOINT COORDINATES
1001 0 0 0; 1002 4 0 0; 1003 0 0 1.296; 1004 4 0 1.296; 1005 0 0 7.075;
1006 4 0 7.075; 1007 0 0 9.225; 1008 4 0 9.225; 2001 0 3 0; 2002 2 3 0;
2003 4 3 0; 2004 0 3 1.296; 2005 2 3 1.296; 2006 4 3 1.296; 2007 0 3 7.075;
2008 2 3 7.075; 2009 4 3 7.075; 2010 0 3 9.225; 2011 2 3 9.225; 2012 4 3 9.225;
3001 0 6 0; 3002 2 6 0; 3003 4 6 0; 3004 0 6 1.296; 3005 2 6 1.296;
3006 4 6 1.296; 3007 0 6 7.075; 3008 4 6 7.075; 3009 0 6 9.225; 3010 4 6 9.225;
MEMBER INCIDENCES
1014 1001 2001; 1015 1002 2003; 1016 1003 2004; 1017 1004 2006; 1018 1005 2007;
1019 1006 2009; 1020 1007 2010; 1021 1008 2012; 1032 2001 3001; 1033 2003 3003;
1034 2004 3004; 1035 2006 3006; 1036 2007 3007; 1037 2009 3008; 1038 2010 3009;
1039 2012 3010; 2001 2001 2002; 2002 2002 2003; 2003 2001 2004; 2004 2002 2005;
2005 2003 2006; 2006 2004 2005; 2007 2005 2006; 2008 2004 2007; 2009 2006 2009;
2010 2007 2008; 2011 2008 2009; 2012 2007 2010; 2013 2008 2011; 2014 2009 2012;
2015 2010 2011; 2016 2011 2012; 3001 3001 3002; 3002 3002 3003; 3003 3001 3004;
3004 3002 3005; 3005 3003 3006; 3006 3004 3005; 3007 3005 3006; 3008 3004 3007;
3009 3006 3008; 3010 3007 3008; 3011 3007 3009; 3012 3008 3010; 3013 3009 3010;
START GROUP DEFINITION
FLOOR
_2F_STORAGE 2002 2004 2005 2007
_2F_TERRACE 2010 TO 2016
_RF_ROOF 3002 3004 TO 3007 3010 TO 3013
MEMBER
_CHB_WALL 2001 TO 2007 2012 2014
_RAIL 2015 2016
END GROUP DEFINITION
DEFINE MATERIAL START
ISOTROPIC FC21
E 2.17185e+07
POISSON 0.17
DENSITY 23.5616
ALPHA 1e-05
DAMP 0.05
G 9.28139e+06
TYPE CONCRETE
STRENGTH FCU 21000
ISOTROPIC LINK
E 1e+20
POISSON 0.3
ALPHA 1.2e-05
DAMP 0.03
G 7.88462e+07
ISOTROPIC STEEL
E 2.05e+08
POISSON 0.3
DENSITY 76.8195
ALPHA 1.2e-05
DAMP 0.03
G 7.88462e+07
TYPE STEEL
STRENGTH RY 1.5 RT 1.2
ISOTROPIC CONCRETE
E 2.17184e+07
POISSON 0.17
DENSITY 23.5615
ALPHA 5.5e-06
DAMP 0.05
G 9.28137e+06
TYPE CONCRETE
STRENGTH FCU 27578.9
END DEFINE MATERIAL
MEMBER PROPERTY
1014 TO 1017 1032 TO 1035 PRIS YD 0.35 ZD 0.25
3001 TO 3007 3010 TO 3013 PRIS YD 0.3 ZD 0.2
2001 TO 2007 2010 TO 2016 PRIS YD 0.4 ZD 0.2
2008 2009 3008 3009 PRIS YD 0.1 ZD 0.1
1018 1020 1036 1038 PRIS YD 0.2
1021 1039 PRIS YD 0.4 ZD 0.4 ZB 0.1
1019 1037 PRIS YD 0.4 ZD 0.3 YB 0.3 ZB 0.1
CONSTANTS
BETA 90 MEMB 1016 1018 TO 1021 1034 1036 TO 1039
MATERIAL FC21 MEMB 1014 TO 1017 1032 TO 1035 2001 TO 2007 2010 TO 2016 3001 -
3002 TO 3007 3010 TO 3013
MATERIAL LINK MEMB 2008 2009 3008 3009
MATERIAL CONCRETE MEMB 1018 TO 1021 1036 TO 1039
MEMBER RELEASE
2008 2009 3008 3009 START FY FZ MX MY MZ
2008 2009 3008 3009 END FY FZ MX MY MZ
2004 2013 3004 START MY MZ
2004 2013 3004 END MY MZ
SUPPORTS
1001 TO 1008 FIXED
MEMBER CRACKED
2001 TO 2016 3001 TO 3013 REDUCTION RIY 0.35 RIZ 0.35
1014 TO 1021 1032 TO 1039 REDUCTION RIY 0.7 RIZ 0.7
MEMBER OFFSET
3001 TO 3007 3010 TO 3013 START 0 -0.15 0
3001 TO 3007 3010 TO 3013 END 0 -0.15 0
2001 TO 2007 2010 TO 2016 START 0 -0.2 0
2001 TO 2007 2010 TO 2016 END 0 -0.2 0
1039 START LOCAL 0.3 0.4 0.5
DEFINE REFERENCE LOADS
LOAD R1 LOADTYPE Dead  TITLE DL
SELFWEIGHT Y 1 
MEMBER LOAD
2001 TO 2007 2012 2014 UNI GY 8.91
2015 2016 UNI GY 0.3
END DEFINE REFERENCE LOADS
FLOOR DIAPHRAGM
DIA 1 TYPE RIG HEI 0 JOINT 2001 TO 2012
DEFINE UBC LOAD
ZONE 0.4 I 1 RWX 8.5 RWZ 8.5 STYP 4 CT 0.0731 NA 1.144 NV 1.416
DEFINE WIND LOAD
TYPE 1 WWX
<! STAAD PRO GENERATED DATA DO NOT MODIFY !!!
ASCE-7-2010:PARAMS 250.000 KMPH 0 1 3 0 0.000 FT 0.000 FT 0.000 FT 1 2 6.000 -
M 4.000 M 9.000 M 2.000 0.010 0 0 0 0 0 0.621 1.000 1.000 0.850 0 0 0 0 -
0.874 0.800 -0.180
!> END GENERATED DATA BLOCK
INT 1.292 1.292 1.298 1.305 1.312 1.318 1.325 1.331 1.337 1.344 1.35 1.356 -
1.362 1.367 1.373 HEIG 0 4.572 4.682 4.792 4.902 5.011 5.121 5.231 5.341 -
5.451 5.561 5.67 5.78 5.89 6
TYPE 2 LWX
<! STAAD PRO GENERATED DATA DO NOT MODIFY !!!
ASCE-7-2010:PARAMS 250.000 KMPH 0 1 3 0 0.000 FT 0.000 FT 0.000 FT 1 2 6.000 -
M 4.000 M 9.500 M 2.000 0.010 1 0 0 0 0 0.621 1.000 1.000 0.850 0 0 0 0 -
0.873 -0.500 0.180
!> END GENERATED DATA BLOCK
INT -0.962923 -0.962923 HEIG  0  6
TYPE 3 WWZ
<! STAAD PRO GENERATED DATA DO NOT MODIFY !!!
ASCE-7-2010:PARAMS 270.000 KMPH 0 1 3 0 0.000 FT 0.000 FT 0.000 FT 1 2 6.000 -
M 9.500 M 4.000 M 2.000 0.010 0 0 0 0 0 0.621 1.000 1.000 0.850 0 0 0 0 -
0.884 0.800 -0.180
!> END GENERATED DATA BLOCK
INT 1.52 1.52 1.529 1.536 1.544 1.552 1.56 1.567 1.575 1.582 1.589 1.596 -
1.603 1.61 1.617 HEIG 0 4.572 4.682 4.792 4.902 5.011 5.121 5.231 5.341 -
5.451 5.561 5.67 5.78 5.89 6
TYPE 4 LWZ
<! STAAD PRO GENERATED DATA DO NOT MODIFY !!!
ASCE-7-2010:PARAMS 270.000 KMPH 0 1 3 0 0.000 FT 0.000 FT 0.000 FT 1 2 6.000 -
M 9.500 M 4.000 M 2.000 0.010 1 0 0 0 0 0.621 1.000 1.000 0.850 0 0 0 0 -
0.884 -0.281 0.180
!> END GENERATED DATA BLOCK
INT -0.780978 -0.780978 HEIG  0  6
LOAD 1 LOADTYPE Seismic-H  TITLE EQ+X +E
UBC LOAD X 1 DEC 1 ACC 0.05
PERFORM ANALYSIS
CHANGE
LOAD 2 LOADTYPE Seismic-H  TITLE EQ +X -E
UBC LOAD X 1 DEC 1 ACC -0.05
PERFORM ANALYSIS
CHANGE
LOAD 3 LOADTYPE Seismic-H  TITLE EQ -X +E
UBC LOAD X -1 DEC 1 ACC 0.05
PERFORM ANALYSIS
CHANGE
LOAD 4 LOADTYPE Seismic-H  TITLE EQ -X -E
UBC LOAD X -1 DEC 1 ACC -0.05
PERFORM ANALYSIS
CHANGE
LOAD 5 LOADTYPE Seismic-H  TITLE EQ +Z +E
UBC LOAD Z 1 DEC 1 ACC 0.05
PERFORM ANALYSIS
CHANGE
LOAD 6 LOADTYPE Seismic-H  TITLE EQ +Z -E
UBC LOAD Z 1 DEC 1 ACC -0.05
PERFORM ANALYSIS
CHANGE
LOAD 7 LOADTYPE Seismic-H  TITLE EQ -Z +E
UBC LOAD Z -1 DEC 1 ACC 0.05
PERFORM ANALYSIS
CHANGE
LOAD 8 LOADTYPE Seismic-H  TITLE EQ -Z -E
UBC LOAD Z -1 DEC 1 ACC -0.05
PERFORM ANALYSIS
CHANGE
LOAD 9 LOADTYPE Dead  TITLE DL
REFERENCE LOAD
R1 -1.0 
LOAD 10 LOADTYPE Live  TITLE LL
FLOOR LOAD
_2F_STORAGE FLOAD -1.9 GY
_2F_TERRACE FLOAD -2.9 GY
LOAD 11 LOADTYPE Wind  TITLE WL +X
WIND LOAD X 1 TYPE 1 ZR 0 1.3
WIND LOAD -X 1 TYPE 2 XR 4 4 ZR 0 1.3
WIND LOAD X 1 TYPE 1 ZR 7 9.5
WIND LOAD -X 1 TYPE 2 XR 4 4 ZR 7 9.5
LOAD 12 LOADTYPE Wind  TITLE WL -X
WIND LOAD X -1 TYPE 1 ZR 0 1.3
WIND LOAD -X -1 TYPE 2 XR -4 0 ZR 0 1.3
WIND LOAD X -1 TYPE 1 ZR 7 9.5
WIND LOAD -X -1 TYPE 2 XR -4 0 ZR 7 9.5
LOAD 13 LOADTYPE Wind  TITLE WL +Z
WIND LOAD Z 1 TYPE 3
WIND LOAD -Z 1 TYPE 4
LOAD 14 LOADTYPE Wind  TITLE WL -Z
WIND LOAD Z -1 TYPE 3
WIND LOAD -Z -1 TYPE 4
LOAD COMB 201 COMB - 1.4 DEAD
9 1.4 
LOAD COMB 202 COMB - 1.2 DEAD + 1.6 LIVE
9 1.2 10 1.6 
LOAD COMB 203 COMB - 1.2 DEAD + 0.5 LIVE
9 1.2 10 0.5 
LOAD COMB 204 COMB - 1.2 DEAD + 0.5 WIND (1)
9 1.2 11 0.5 
LOAD COMB 205 COMB - 1.2 DEAD + 0.5 WIND (2)
9 1.2 12 0.5 
LOAD COMB 206 COMB - 1.2 DEAD + 0.5 WIND (3)
9 1.2 13 0.5 
LOAD COMB 207 COMB - 1.2 DEAD + 0.5 WIND (4)
9 1.2 14 0.5 
LOAD COMB 208 COMB - 1.2 DEAD + 0.5 LIVE + 1 WIND (1)
9 1.2 10 0.5 11 1.0 
LOAD COMB 209 COMB - 1.2 DEAD + 0.5 LIVE + 1 WIND (2)
9 1.2 10 0.5 12 1.0 
LOAD COMB 210 COMB - 1.2 DEAD + 0.5 LIVE + 1 WIND (3)
9 1.2 10 0.5 13 1.0 
LOAD COMB 211 COMB - 1.2 DEAD + 0.5 LIVE + 1 WIND (4)
9 1.2 10 0.5 14 1.0 
LOAD COMB 212 COMB - 0.9 DEAD + 1 WIND (1)
9 0.9 11 1.0 
LOAD COMB 213 COMB - 0.9 DEAD + 1 WIND (2)
9 0.9 12 1.0 
LOAD COMB 214 COMB - 0.9 DEAD + 1 WIND (3)
9 0.9 13 1.0 
LOAD COMB 215 COMB - 0.9 DEAD + 1 WIND (4)
9 0.9 14 1.0 
LOAD COMB 216 COMB - 1.424 DEAD + 0.5 LIVE + 1 SEISMIC-H (1)
9 1.424 10 0.5 1 1.0 
LOAD COMB 217 COMB - 1.424 DEAD + 0.5 LIVE + 1 SEISMIC-H (2)
9 1.424 10 0.5 2 1.0 
LOAD COMB 218 COMB - 1.424 DEAD + 0.5 LIVE + 1 SEISMIC-H (3)
9 1.424 10 0.5 3 1.0 
LOAD COMB 219 COMB - 1.424 DEAD + 0.5 LIVE + 1 SEISMIC-H (4)
9 1.424 10 0.5 4 1.0 
LOAD COMB 220 COMB - 1.424 DEAD + 0.5 LIVE + 1 SEISMIC-H (5)
9 1.424 10 0.5 5 1.0 
LOAD COMB 221 COMB - 1.424 DEAD + 0.5 LIVE + 1 SEISMIC-H (6)
9 1.424 10 0.5 6 1.0 
LOAD COMB 222 COMB - 1.424 DEAD + 0.5 LIVE + 1 SEISMIC-H (7)
9 1.424 10 0.5 7 1.0 
LOAD COMB 223 COMB - 1.424 DEAD + 0.5 LIVE + 1 SEISMIC-H (8)
9 1.424 10 0.5 8 1.0 
PERFORM ANALYSIS
FINISH
