STAAD SPACE
START JOB INFORMATION
ENGINEER DATE 17-Mar-24
END JOB INFORMATION
SET NL 100
INPUT WIDTH 79
UNIT METER KN
JOINT COORDINATES
33 -1 3.5 4.33; 34 -1 3.5 8.93; 35 0 3.5 2.83; 36 -1 3.5 2.83; 37 0 3.5 6.93;
38 1 3.5 4.33; 39 1 3.5 6.93; 40 3 3.5 2.83; 41 5.75 3.5 2.83; 42 7.65 3.5 0;
43 7.65 3.5 2.83; 44 10.9 3.5 0; 45 10.9 3.5 4.33; 46 9.45 3.5 2.83;
47 10.9 3.5 2.83; 48 8.22 3.5 4.33; 49 8.22 3.5 6.93; 66 0 6.5 6.93;
67 1 6.5 4.33; 68 1 6.5 6.93; 69 3 3.5 4.33; 70 9.45 3.5 6.93; 71 12.5 3.5 0;
72 12.5 3.5 6.93; 73 0 3.5 4.33; 74 5.75 3.5 4.33; 75 3 3.5 6.93;
76 0 3.5 8.93; 77 5.75 3.5 6.93; 78 3 3.5 8.93; 79 9.45 3.5 0;
80 9.45 3.5 4.33; 81 12.5 3.5 4.33; 82 0 3.5 0; 83 3 3.5 0; 84 5.75 3.5 0;
85 9.45 6.5 4.33; 86 3 6.5 6.93; 87 12.5 6.5 4.33; 88 9.45 6.5 0;
89 5.75 6.5 4.33; 90 5.75 6.5 6.93; 91 9.45 6.5 6.93; 92 3 6.5 4.33;
93 0 6.5 0; 94 12.5 6.5 6.93; 95 12.5 6.5 0; 96 3 6.5 0; 97 5.75 6.5 0;
98 0 6.5 4.33; 99 10.9 6.5 4.33; 100 10.9 6.5 0; 1001 0 0 0; 1002 0 0 4.33;
1003 0 0 8.93; 1004 3 0 0; 1005 3 0 4.33; 1006 3 0 6.93; 1007 3 0 8.93;
1008 5.75 0 0; 1009 5.75 0 4.33; 1010 5.75 0 6.93; 1011 9.45 0 0;
1012 9.45 0 4.33; 1013 9.45 0 6.93; 1014 12.5 0 0; 1015 12.5 0 4.33;
1016 12.5 0 6.93;
MEMBER INCIDENCES
26 82 83; 27 83 84; 28 84 42; 29 79 44; 30 82 35; 32 84 41; 34 71 81; 35 73 38;
36 69 74; 37 74 48; 38 80 45; 39 74 77; 40 80 70; 41 81 72; 42 75 77; 43 77 49;
44 70 72; 45 73 37; 46 76 78; 47 69 75; 48 75 78; 49 33 73; 50 34 76; 51 33 34;
52 35 73; 53 36 33; 54 36 35; 55 37 76; 56 37 39; 57 38 69; 58 39 75; 59 38 39;
60 41 74; 61 35 40; 62 40 41; 63 40 69; 64 42 79; 65 42 43; 66 44 71; 67 45 81;
68 44 47; 69 46 80; 70 47 45; 71 46 47; 72 41 43; 73 43 46; 74 48 80; 75 49 70;
76 48 49; 77 93 96; 78 96 97; 79 97 88; 80 88 100; 81 93 98; 82 96 92;
83 97 89; 84 88 85; 85 95 87; 86 98 67; 87 92 89; 88 89 85; 89 85 99; 90 89 90;
91 85 91; 92 87 94; 93 86 90; 94 90 91; 95 91 94; 96 98 66; 98 92 86;
101 66 68; 102 67 92; 103 68 86; 104 67 68; 105 1001 82; 106 82 93;
107 1004 83; 108 83 96; 109 1008 84; 110 84 97; 111 1011 79; 112 79 88;
113 1014 71; 114 71 95; 115 1002 73; 116 73 98; 117 1005 69; 118 69 92;
119 1009 74; 120 74 89; 121 1012 80; 122 80 85; 123 1015 81; 124 81 87;
125 1006 75; 126 75 86; 127 1010 77; 128 77 90; 129 1013 70; 130 70 91;
131 1016 72; 132 72 94; 133 1003 76; 134 1007 78; 135 37 66; 136 99 87;
137 100 95; 138 44 100; 139 45 99; 140 100 99;
START GROUP DEFINITION
FLOOR
_2F_2WAYSLBCEIL 28 29 32 34 TO 76
_2F_2WAY_RESID 28 29 32 34 TO 76
_2F_W2_23_CD 36 39 42 47
_RF_2WAY_CEIL 77 TO 96 98 101 TO 104 136 137
MEMBER
_W1 26 TO 30 35 41 TO 44 52 58 59 64 67 68 70 75
_W2 32 37 38 40 65 71 TO 74 76
_W3 77 TO 80 137
_W4 81 85 92 96
JOINT
_101 88 93 95 TO 97
_102 85 87 89 92 98
_103 66 86 90 91 94
END GROUP DEFINITION
DEFINE MATERIAL START
ISOTROPIC CONCRETE_21MPA
E 2.1538e+07
POISSON 0.17
DENSITY 23.5616
ALPHA 1e-05
DAMP 0.05
G 9.28139e+06
TYPE CONCRETE
STRENGTH FCU 21000
ISOTROPIC DUMMY
E 200000
POISSON 0.3
ALPHA 1.2e-05
DAMP 0.03
G 70000
END DEFINE MATERIAL
MEMBER PROPERTY
117 119 121 123 PRIS YD 0.4 ZD 0.3
118 120 122 124 PRIS YD 0.3 ZD 0.2
105 107 109 111 113 115 125 127 129 131 PRIS YD 0.35 ZD 0.3
106 108 110 112 114 116 126 128 130 132 PRIS YD 0.3 ZD 0.2
133 134 PRIS YD 0.4 ZD 0.3
30 32 34 45 52 55 60 PRIS YD 0.45 ZD 0.3
26 TO 29 35 TO 44 46 TO 48 50 51 53 54 56 TO 58 61 TO 64 66 TO 75 -
76 PRIS YD 0.4 ZD 0.2
49 59 65 PRIS YD 0.35 ZD 0.2
77 TO 96 98 101 TO 104 136 137 PRIS YD 0.35 ZD 0.2
135 138 TO 140 PRIS YD 0.1
CONSTANTS
MATERIAL CONCRETE_21MPA MEMB 26 TO 30 32 34 TO 96 98 101 TO 134 136 137
MATERIAL DUMMY MEMB 135 138 TO 140
MEMBER CRACKED
105 TO 134 REDUCTION RIY 0.7 RIZ 0.7
26 TO 30 32 34 TO 96 98 101 TO 104 136 137 REDUCTION RIY 0.35 RIZ 0.35
MEMBER RELEASE
53 59 68 76 104 START MZ
51 59 71 76 104 END MZ
SUPPORTS
1001 TO 1016 FIXED
MEMBER OFFSET
30 32 34 45 52 55 60 START 0 -0.225 0
30 32 34 45 52 55 60 END 0 -0.225 0
26 TO 29 35 TO 44 46 TO 48 50 51 53 54 56 TO 58 61 TO 64 66 TO 75 -
76 START 0 -0.2 0
26 TO 29 35 TO 44 46 TO 48 50 51 53 54 56 TO 58 61 TO 64 66 TO 76 END 0 -0.2 0
49 59 65 77 TO 96 98 101 TO 104 136 137 START 0 -0.175 0
49 59 65 77 TO 96 98 101 TO 104 136 137 END 0 -0.175 0
105 107 109 111 113 START 0 0 0.05
105 107 109 111 113 END 0 0 0.05
125 127 129 131 133 134 START 0 0 -0.05
125 127 129 131 133 134 END 0 0 -0.05
DEFINE REFERENCE LOADS
LOAD R1 LOADTYPE Dead  TITLE DL
SELFWEIGHT Y -1 LIST 26 TO 30 32 34 TO 96 98 101 TO 134 136 137
FLOOR LOAD
_2F_2WAYSLBCEIL FLOAD -4.5 GY
_RF_2WAY_CEIL FLOAD -1 GY
MEMBER LOAD
_W1 UNI GY -9.5
_W2 UNI GY -9.3
77 TO 80 137 UNI GY -3.15
_W4 UNI GY -1.6
JOINT LOAD
_101 FY -3 FZ 1.25
_102 FY -2.2
_103 FY -1.35
FLOOR LOAD
_2F_W2_23_CD FLOAD -3.4 GY
MEMBER LOAD
36 42 UNI GY -9.3 1.75 2.75
32 UNI GY -3.5 0 1.1
27 62 UNI GY -3.7 1.65 2.75
LOAD R2 LOADTYPE Live  TITLE LL
FLOOR LOAD
_2F_2WAY_RESID FLOAD -2 GY
_RF_2WAY_CEIL FLOAD -0.5 GY
JOINT LOAD
_101 FY -2.5 FZ 1.1
_102 FY -1.7
_103 FY -1
MEMBER LOAD
32 UNI GY -2.75 0 1.1
27 62 UNI GY -3 1.65 2.75
LOAD R3 LOADTYPE Mass  TITLE MASS
SELFWEIGHT X 1 LIST 26 TO 30 32 34 TO 96 98 101 TO 134 136 137
SELFWEIGHT Y 1 LIST 26 TO 30 32 34 TO 96 98 101 TO 134 136 137
SELFWEIGHT Z 1 LIST 26 TO 30 32 34 TO 96 98 101 TO 134 136 137
FLOOR LOAD
_2F_2WAYSLBCEIL FLOAD 4.5 GX
_2F_2WAYSLBCEIL FLOAD 4.5 GY
_2F_2WAYSLBCEIL FLOAD 4.5 GZ
FLOOR LOAD
_RF_2WAY_CEIL FLOAD 1 GX
_RF_2WAY_CEIL FLOAD 1 GY
_RF_2WAY_CEIL FLOAD 1 GZ
MEMBER LOAD
_W1 UNI GX 9.5
_W1 UNI GY 9.5
_W1 UNI GZ 9.5
MEMBER LOAD
_W2 UNI GX 9.3
_W2 UNI GY 9.3
_W2 UNI GZ 9.3
MEMBER LOAD
77 TO 80 137 UNI GX 3.15
77 TO 80 137 UNI GY 3.15
77 TO 80 137 UNI GZ 3.15
MEMBER LOAD
_W4 UNI GX 1.6
_W4 UNI GY 1.6
_W4 UNI GZ 1.6
JOINT LOAD
_101 FX 3
_101 FY 3
_101 FZ 3
JOINT LOAD
_102 FX 2.2
_102 FY 2.2
_102 FZ 2.2
JOINT LOAD
_103 FX 1.35
_103 FY 1.35
_103 FZ 1.35
FLOOR LOAD
_2F_W2_23_CD FLOAD 3.4 GX
_2F_W2_23_CD FLOAD 3.4 GY
_2F_W2_23_CD FLOAD 3.4 GZ
MEMBER LOAD
36 42 UNI GX 9.3 1.75 2.75
36 42 UNI GY 9.3 1.75 2.75
36 42 UNI GZ 9.3 1.75 2.75
MEMBER LOAD
32 UNI GX 3.5 0 1.1
32 UNI GY 3.5 0 1.1
32 UNI GZ 3.5 0 1.1
MEMBER LOAD
27 62 UNI GX 3.7 1.65 2.75
27 62 UNI GY 3.7 1.65 2.75
27 62 UNI GZ 3.7 1.65 2.75
END DEFINE REFERENCE LOADS
FLOOR DIAPHRAGM
DIA 1 TYPE RIG HEI 3.5 JOINT 33 TO 49 69 TO 81 84
CHECK SOFT STORY ASCE7
CHECK IRREGULARITIES CODE ASCE7
DEFINE UBC LOAD
ZONE 0.4 I 1 RWX 5.5 RWZ 5.5 STYP 4 NA 1.2 NV 1.6
REFERENCE LOAD Y
R1 1.0 
DEFINE WIND LOAD
TYPE 1 WWX
<! STAAD PRO GENERATED DATA DO NOT MODIFY !!!
ASCE-7-2010:PARAMS 260.000 KMPH 0 1 1 0 0.000 FT 0.000 FT 0.000 FT 1 2 8.500 -
M 12.500 M 9.030 M 2.000 0.010 0 0 0 0 0 0.686 1.000 1.000 0.850 0 0 0 0 -
0.870 0.800 -0.180
!> END GENERATED DATA BLOCK
INT 1.423 1.423 1.443 1.462 1.481 1.498 1.516 1.532 1.548 1.563 1.578 1.593 -
1.607 1.621 1.634 HEIG 0 4.572 4.874 5.176 5.478 5.781 6.083 6.385 6.687 -
6.989 7.291 7.594 7.896 8.198 8.5
TYPE 2 LWX
<! STAAD PRO GENERATED DATA DO NOT MODIFY !!!
ASCE-7-2010:PARAMS 260.000 KMPH 0 1 1 0 0.000 FT 0.000 FT 0.000 FT 1 2 8.500 -
M 12.500 M 9.030 M 2.000 0.010 1 0 0 0 0 0.686 1.000 1.000 0.850 0 0 0 0 -
0.870 -0.423 0.180
!> END GENERATED DATA BLOCK
INT -1.02241 -1.02241 HEIG  0  8.5
TYPE 3 WWZ
<! STAAD PRO GENERATED DATA DO NOT MODIFY !!!
ASCE-7-2010:PARAMS 260.000 KMPH 0 1 1 0 0.000 FT 0.000 FT 0.000 FT 1 2 8.500 -
M 9.030 M 12.500 M 2.000 0.010 0 0 0 0 0 0.686 1.000 1.000 0.850 0 0 0 0 -
0.864 0.800 -0.180
!> END GENERATED DATA BLOCK
INT 1.416 1.416 1.436 1.455 1.473 1.491 1.508 1.524 1.54 1.555 1.57 1.585 -
1.599 1.612 1.625 HEIG 0 4.572 4.874 5.176 5.478 5.781 6.083 6.385 6.687 -
6.989 7.291 7.594 7.896 8.198 8.5
TYPE 4 LWZ
<! STAAD PRO GENERATED DATA DO NOT MODIFY !!!
ASCE-7-2010:PARAMS 260.000 KMPH 0 1 1 0 0.000 FT 0.000 FT 0.000 FT 1 2 8.500 -
M 9.030 M 12.500 M 2.000 0.010 1 0 0 0 0 0.686 1.000 1.000 0.850 0 0 0 0 -
0.864 -0.500 0.180
!> END GENERATED DATA BLOCK
INT -1.14182 -1.14182 HEIG  0  8.5
LOAD 1 LOADTYPE None  TITLE EQ +X
UBC LOAD X 1 DEC 1 ACC 0.05
PERFORM ANALYSIS
CHANGE
LOAD 2 LOADTYPE None  TITLE EQ +Z
UBC LOAD Z 1 DEC 1 ACC 0.05
PERFORM ANALYSIS
CHANGE
LOAD 3 LOADTYPE Seismic-H  TITLE RS +X
SPECTRUM CQC X 0.223 ACC SCALE 1 DAMP 0.05 LIN
0 5.18; 0.029 6.632; 0.058 8.084; 0.087 9.536; 0.116 11.009; 0.175 12.949;
0.233 12.949; 0.291 12.949; 0.582 12.949; 0.64 12.949; 0.727 12.949;
0.873 11.507; 1.164 8.63; 1.455 6.904; 1.745 5.757; 2.036 4.934; 2.327 4.317;
2.618 3.837; 2.909 3.453; 3.2 3.139; 3.491 2.878; 3.782 2.656; 4.073 2.466;
4.364 2.302; 4.655 2.158; 4.945 2.031; 5.236 1.919; 5.522 1.819; 5.818 1.727;
6.109 1.644; 6.4 1.57; 6.691 1.501; 6.982 1.439; 7.273 1.381; 7.564 1.328;
7.855 1.279; 8.145 1.233; 8.436 1.191; 8.727 1.151; 9.018 1.114; 9.309 1.079;
9.6 1.046; 9.891 1.016; 10.182 0.987; 10.473 0.959;
LOAD 4 LOADTYPE Seismic-H  TITLE RS +Z
SPECTRUM CQC Z 0.201 ACC SCALE 1 DAMP 0.05 LIN
0 5.18; 0.029 6.632; 0.058 8.084; 0.087 9.536; 0.116 11.009; 0.175 12.949;
0.233 12.949; 0.291 12.949; 0.582 12.949; 0.64 12.949; 0.727 12.949;
0.873 11.507; 1.164 8.63; 1.455 6.904; 1.745 5.757; 2.036 4.934; 2.327 4.317;
2.618 3.837; 2.909 3.453; 3.2 3.139; 3.491 2.878; 3.782 2.656; 4.073 2.466;
4.364 2.302; 4.655 2.158; 4.945 2.031; 5.236 1.919; 5.522 1.819; 5.818 1.727;
6.109 1.644; 6.4 1.57; 6.691 1.501; 6.982 1.439; 7.273 1.381; 7.564 1.328;
7.855 1.279; 8.145 1.233; 8.436 1.191; 8.727 1.151; 9.018 1.114; 9.309 1.079;
9.6 1.046; 9.891 1.016; 10.182 0.987; 10.473 0.959;
LOAD 5 LOADTYPE Dead  TITLE DL
REFERENCE LOAD
R1 1.0 
LOAD 6 LOADTYPE Live  TITLE LL
REFERENCE LOAD
R2 1.0 
LOAD 7 LOADTYPE Wind  TITLE WL +X
WIND LOAD X 1 TYPE 1
WIND LOAD -X 1 TYPE 2 YR 0 3.5
WIND LOAD -X 1 TYPE 2 XR 10.9 10.9 YR 3.5 7.5 ZR 0 4.33
WIND LOAD -X 1 TYPE 2 YR 3.5 7.5 ZR 4.33 6.93
LOAD 8 LOADTYPE Wind  TITLE WL -X
WIND LOAD X -1 TYPE 1 YR 0 3.5
WIND LOAD X -1 TYPE 1 XR 10.9 10.9 YR 3.5 7.5 ZR 0 4.33
WIND LOAD X -1 TYPE 1 YR 3.5 7.5 ZR 4.33 6.93
WIND LOAD -X -1 TYPE 2
LOAD 9 LOADTYPE Wind  TITLE WL +Z
WIND LOAD Z 1 TYPE 3
WIND LOAD -Z 1 TYPE 4
LOAD 10 LOADTYPE Wind  TITLE WL -Z
WIND LOAD Z -1 TYPE 3
WIND LOAD -Z -1 TYPE 4
LOAD COMB 101 COMB - 1.2 DEAD + 0.5 WIND (1)
5 1.2 7 0.5 
LOAD COMB 102 COMB - 1.2 DEAD + 0.5 WIND (2)
5 1.2 8 0.5 
LOAD COMB 103 COMB - 1.2 DEAD + 0.5 WIND (3)
5 1.2 9 0.5 
LOAD COMB 104 COMB - 1.2 DEAD + 0.5 WIND (4)
5 1.2 10 0.5 
LOAD COMB 105 COMB - 1.2 DEAD + 0.5 LIVE + 1 WIND (1)
5 1.2 6 0.5 7 1.0 
LOAD COMB 106 COMB - 1.2 DEAD + 0.5 LIVE + 1 WIND (2)
5 1.2 6 0.5 8 1.0 
LOAD COMB 107 COMB - 1.2 DEAD + 0.5 LIVE + 1 WIND (3)
5 1.2 6 0.5 9 1.0 
LOAD COMB 108 COMB - 1.2 DEAD + 0.5 LIVE + 1 WIND (4)
5 1.2 6 0.5 10 1.0 
LOAD COMB 109 COMB - 1.2 DEAD + 0.5 LIVE + 1 SEISMIC-X + .3 SEISMIC-Z (1)
5 1.2 6 0.5 3 1.0 4 0.3 
LOAD COMB 110 COMB - 1.2 DEAD + 0.5 LIVE + 1 SEISMIC-X - .3 SEISMIC-Z (2)
5 1.2 6 0.5 3 1.0 4 -0.3 
LOAD COMB 111 COMB - 1.2 DEAD + 0.5 LIVE - 1 SEISMIC-X - .3 SEISMIC-Z (3)
5 1.2 6 0.5 3 -1.0 4 -0.3 
LOAD COMB 112 COMB - 1.2 DEAD + 0.5 LIVE - 1 SEISMIC-X + .3 SEISMIC-Z (4)
5 1.2 6 0.5 3 -1.0 4 0.3 
LOAD COMB 113 COMB - 1.2 DEAD + 0.5 LIVE + 1 SEISMIC-Z + .3 SEISMIC-X (5)
5 1.2 6 0.5 4 1.0 3 0.3 
LOAD COMB 114 COMB - 1.2 DEAD + 0.5 LIVE + 1 SEISMIC-Z - .3 SEISMIC-X (6)
5 1.2 6 0.5 4 1.0 4 -0.3 
LOAD COMB 115 COMB - 1.2 DEAD + 0.5 LIVE - 1 SEISMIC-Z - .3 SEISMIC-X (7)
5 1.2 6 0.5 4 -1.0 4 -0.3 
LOAD COMB 116 COMB - 1.2 DEAD + 0.5 LIVE - 1 SEISMIC-Z + .3 SEISMIC-X (8)
5 1.2 6 0.5 4 -1.0 4 0.3 
LOAD COMB 117 COMB - 0.9 DEAD + 1 WIND (1)
5 0.9 7 1.0 
LOAD COMB 118 COMB - 0.9 DEAD + 1 WIND (2)
5 0.9 8 1.0 
LOAD COMB 119 COMB - 0.9 DEAD + 1 WIND (3)
5 0.9 9 1.0 
LOAD COMB 120 COMB - 0.9 DEAD + 1 WIND (4)
5 0.9 10 1.0 
LOAD COMB 121 COMB - 0.9 DEAD + 1 SEISMIC-X + .3 SEISMIC-Z (1)
5 0.9 3 1.0 4 0.3 
LOAD COMB 122 COMB - 0.9 DEAD + 1 SEISMIC-X - .3 SEISMIC-Z (2)
5 0.9 3 1.0 4 -0.3 
LOAD COMB 123 COMB - 0.9 DEAD - 1 SEISMIC-X - .3 SEISMIC-Z (3)
5 0.9 3 -1.0 4 -0.3 
LOAD COMB 124 COMB - 0.9 DEAD - 1 SEISMIC-X + .3 SEISMIC-Z (4)
5 0.9 3 -1.0 4 0.3 
LOAD COMB 125 COMB - 0.9 DEAD + 1 SEISMIC-Z + .3 SEISMIC-X (5)
5 0.9 4 1.0 3 0.3 
LOAD COMB 126 COMB - 0.9 DEAD + 1 SEISMIC-Z - .3 SEISMIC-X (6)
5 0.9 4 1.0 3 -0.3 
LOAD COMB 127 COMB - 0.9 DEAD - 1 SEISMIC-Z - .3 SEISMIC-X (7)
5 0.9 4 -1.0 3 -0.3 
LOAD COMB 128 COMB - 0.9 DEAD - 1 SEISMIC-Z + .3 SEISMIC-X (8)
5 0.9 4 -1.0 3 0.3 
LOAD COMB 201 COMB - 1.4 DEAD
5 1.4 
LOAD COMB 202 COMB - 1.2 DEAD + 1.6 LIVE
5 1.2 6 1.6 
LOAD COMB 203 COMB - 1.2 DEAD + 0.5 LIVE
5 1.2 6 0.5 
LOAD COMB 204 COMB - 1.2 DEAD + 0.5 WIND (1)
5 1.2 7 0.5 
LOAD COMB 205 COMB - 1.2 DEAD + 0.5 WIND (2)
5 1.2 8 0.5 
LOAD COMB 206 COMB - 1.2 DEAD + 0.5 WIND (3)
5 1.2 9 0.5 
LOAD COMB 207 COMB - 1.2 DEAD + 0.5 WIND (4)
5 1.2 10 0.5 
LOAD COMB 208 COMB - 1.2 DEAD + 0.5 LIVE + 1 WIND (1)
5 1.2 6 0.5 7 1.0 
LOAD COMB 209 COMB - 1.2 DEAD + 0.5 LIVE + 1 WIND (2)
5 1.2 6 0.5 8 1.0 
LOAD COMB 210 COMB - 1.2 DEAD + 0.5 LIVE + 1 WIND (3)
5 1.2 6 0.5 9 1.0 
LOAD COMB 211 COMB - 1.2 DEAD + 0.5 LIVE + 1 WIND (4)
5 1.2 6 0.5 10 1.0 
LOAD COMB 212 COMB - 0.9 DEAD + 1 WIND (1)
5 0.9 7 1.0 
LOAD COMB 213 COMB - 0.9 DEAD + 1 WIND (2)
5 0.9 8 1.0 
LOAD COMB 214 COMB - 0.9 DEAD + 1 WIND (3)
5 0.9 9 1.0 
LOAD COMB 215 COMB - 0.9 DEAD + 1 WIND (4)
5 0.9 10 1.0 
LOAD COMB 216 COMB - 1.464 DEAD + 0.5 LIVE + 1 SEISMIC-X + .3 SEISMIC-Z (1)
5 1.464 6 0.5 3 1.0 4 0.3 
LOAD COMB 217 COMB - 1.464 DEAD + 0.5 LIVE + 1 SEISMIC-X - .3 SEISMIC-Z (2)
5 1.464 6 0.5 3 1.0 4 -0.3 
LOAD COMB 218 COMB - 1.464 DEAD + 0.5 LIVE - 1 SEISMIC-X - .3 SEISMIC-Z (3)
5 1.464 6 0.5 3 -1.0 4 -0.3 
LOAD COMB 219 COMB - 1.464 DEAD + 0.5 LIVE - 1 SEISMIC-X + .3 SEISMIC-Z (4)
5 1.464 6 0.5 3 -1.0 4 0.3 
LOAD COMB 220 COMB - 1.464 DEAD + 0.5 LIVE + 1 SEISMIC-Z + .3 SEISMIC-X (5)
5 1.464 6 0.5 4 1.0 3 0.3 
LOAD COMB 221 COMB - 1.464 DEAD + 0.5 LIVE + 1 SEISMIC-Z - .3 SEISMIC-X (6)
5 1.464 6 0.5 4 1.0 3 -0.3 
LOAD COMB 222 COMB - 1.464 DEAD + 0.5 LIVE - 1 SEISMIC-Z - .3 SEISMIC-X (7)
5 1.464 6 0.5 4 -1.0 3 -0.3 
LOAD COMB 223 COMB - 1.464 DEAD + 0.5 LIVE - 1 SEISMIC-Z + .3 SEISMIC-X (8)
5 1.464 6 0.5 4 -1.0 3 0.3 
LOAD COMB 224 COMB - 1.164 DEAD + 1 SEISMIC-X + .3 SEISMIC-Z (1)
5 1.164 3 1.0 4 0.3 
LOAD COMB 225 COMB - 1.164 DEAD + 1 SEISMIC-X - .3 SEISMIC-Z (2)
5 1.164 3 1.0 4 -0.3 
LOAD COMB 226 COMB - 1.164 DEAD - 1 SEISMIC-X - .3 SEISMIC-Z (3)
5 1.164 3 -1.0 4 -0.3 
LOAD COMB 227 COMB - 1.164 DEAD - 1 SEISMIC-X + .3 SEISMIC-Z (4)
5 1.164 3 -1.0 4 0.3 
LOAD COMB 228 COMB - 1.164 DEAD + 1 SEISMIC-Z + .3 SEISMIC-X (5)
5 1.164 4 1.0 3 0.3 
LOAD COMB 229 COMB - 1.164 DEAD + 1 SEISMIC-Z - .3 SEISMIC-X (6)
5 1.164 4 1.0 3 -0.3 
LOAD COMB 230 COMB - 1.164 DEAD - 1 SEISMIC-Z - .3 SEISMIC-X (7)
5 1.164 4 -1.0 3 -0.3 
LOAD COMB 231 COMB - 1.164 DEAD - 1 SEISMIC-Z + .3 SEISMIC-X (8)
5 1.164 4 -1.0 3 0.3 
LOAD COMB 232 COMB - 0.636 DEAD + 1 SEISMIC-X + .3 SEISMIC-Z (1)
5 0.636 3 1.0 4 0.3 
LOAD COMB 233 COMB - 0.636 DEAD + 1 SEISMIC-X - .3 SEISMIC-Z (2)
5 0.636 3 1.0 4 -0.3 
LOAD COMB 234 COMB - 0.636 DEAD - 1 SEISMIC-X - .3 SEISMIC-Z (3)
5 0.636 3 -1.0 4 -0.3 
LOAD COMB 235 COMB - 0.636 DEAD + 1 SEISMIC-X + .3 SEISMIC-Z (4)
5 0.636 3 -1.0 4 0.3 
LOAD COMB 236 COMB - 0.636 DEAD + 1 SEISMIC-Z + .3 SEISMIC-X (5)
5 0.636 4 1.0 3 0.3 
LOAD COMB 237 COMB - 0.636 DEAD + 1 SEISMIC-Z - .3 SEISMIC-X (6)
5 0.636 4 1.0 3 -0.3 
LOAD COMB 238 COMB - 0.636 DEAD - 1 SEISMIC-Z - .3 SEISMIC-X (7)
5 0.636 4 -1.0 3 -0.3 
LOAD COMB 239 COMB - 0.636 DEAD - 1 SEISMIC-Z + .3 SEISMIC-X (8)
5 0.636 4 -1.0 3 0.3 
PERFORM ANALYSIS PRINT MODE SHAPES
LOAD LIST 101 TO 128
PRINT STORY DRIFT 0.006500
START CONCRETE DESIGN
CODE ACI 2011
CLB 0.04 MEMB 26 TO 30 32 34 TO 96 98 101 TO 104 136 137
CLS 0.0381 MEMB 105 TO 134
CLT 0.0381 MEMB 26 TO 30 32 34 TO 96 98 101 TO 104 136 137
FC 21000 MEMB 26 TO 30 32 34 TO 96 98 101 TO 134 136 137
FYMAIN 275000 MEMB 26 TO 30 32 34 TO 96 98 101 TO 134 136 137
FYSEC 380000 MEMB 26 TO 30 32 34 TO 96 98 101 TO 134 136 137
MAXMAIN 20 MEMB 26 TO 30 32 34 TO 96 98 101 TO 134 136 137
MINMAIN 16 MEMB 26 TO 30 32 34 TO 96 98 101 TO 134 136 137
MINSEC 10 MEMB 26 TO 30 32 34 TO 96 98 101 TO 134 136 137
TRACK 2 MEMB 26 TO 30 32 34 TO 96 98 101 TO 134 136 137
DESIGN BEAM 26 TO 30 32 34 TO 96 98 101 TO 104 136 137
DESIGN COLUMN 105 TO 134
CONCRETE TAKE
END CONCRETE DESIGN
FINISH
