STAAD SPACE
START JOB INFORMATION
ENGINEER DATE 28-Mar-23
END JOB INFORMATION
INPUT WIDTH 79
UNIT METER KN
JOINT COORDINATES
2 0 0 1.1875; 3 0 0 2.375; 4 0 0 3.5625; 5 0 0 4.75; 6 0 0 5.9375;
8 0 0 8.3125; 10 0 0.625 1.1875; 11 0 1.25 2.375; 12 0 1.875 3.5625;
13 0 2.5 4.75; 14 0 1.875 5.9375; 15 0 1.25 7.125; 16 0 0.625 8.3125;
101 0 0 0; 102 0 0 7.125; 103 0 0 9.5;
MEMBER INCIDENCES
101 101 2; 102 2 3; 103 3 4; 104 4 5; 105 5 6; 106 6 102; 107 102 8; 108 8 103;
201 101 10; 202 10 11; 203 11 12; 204 12 13; 205 13 14; 206 14 15; 207 15 16;
208 16 103; 301 2 10; 302 10 3; 303 3 11; 304 11 4; 305 4 12; 306 12 5;
307 5 14; 308 6 14; 309 6 15; 310 102 15; 311 102 16; 312 8 16; 401 5 13;
DEFINE MATERIAL START
ISOTROPIC STEEL
E 2.05e+08
POISSON 0.3
DENSITY 76.8195
ALPHA 1.2e-05
DAMP 0.03
G 7.88462e+07
TYPE STEEL
STRENGTH RY 1.5 RT 1.2
ISOTROPIC STEEL_A36
E 2e+08
POISSON 0.3
DENSITY 77
ALPHA 1.2e-05
DAMP 0.03
G 7.88462e+07
TYPE STEEL
STRENGTH FY 248000 FU 414000 RY 1.5 RT 1.2
END DEFINE MATERIAL
MEMBER PROPERTY AMERICAN
101 TO 108 TABLE LD L20203 SP 0.01
201 TO 208 TABLE LD L30204 SP 0.01
301 TO 312 401 TABLE LD L20203 SP 0.01
CONSTANTS
BETA 180 MEMB 101 TO 108
BETA 90 MEMB 301 303 305 308 310 312 401
MATERIAL STEEL_A36 ALL
MEMBER RELEASE
205 301 TO 309 312 401 START MY MZ
301 TO 312 401 END MY MZ
SUPPORTS
101 ENFORCED BUT MX MY
102 103 ENFORCED BUT FZ MX MY
LOAD 1 LOADTYPE Dead  TITLE DL
SELFWEIGHT Y -1 
MEMBER LOAD
201 TO 208 UNI GY -4.6
LOAD 2 LOADTYPE Live  TITLE LL
MEMBER LOAD
201 TO 208 UNI GY -4.6
LOAD 3 LOADTYPE Wind  TITLE WL +Z
MEMBER LOAD
201 TO 204 UNI Y -7.67
205 TO 208 UNI Y 3.83
LOAD 4 LOADTYPE Wind  TITLE WL -Z
MEMBER LOAD
205 TO 208 UNI Y -7.67
201 TO 204 UNI Y 3.83
LOAD COMB 101 COMB - 1 DEAD
1 1.0 
LOAD COMB 102 COMB - 1 DEAD + 1 LIVE
1 1.0 2 1.0 
LOAD COMB 103 COMB - 1 DEAD + 0.75 LIVE
1 1.0 2 0.75 
LOAD COMB 104 COMB - 1 DEAD + 0.6 WIND (1)
1 1.0 3 0.6 
LOAD COMB 105 COMB - 1 DEAD + 0.6 WIND (2)
1 1.0 4 0.6 
PERFORM ANALYSIS
LOAD LIST 101 TO 105
PARAMETER 1
CODE AISC UNIFIED 2010
METHOD ASD
FYLD 248000 ALL
RATIO 1 ALL
TRACK 2 ALL
CHECK CODE ALL
FINISH
